.MODEL BC547B NPN (BF=530 NE=1.3 ISE=9.72F IKF=80M IS=20F VAF=50V BR=10 NC=2 ISC=47P IKR=12M VAR=10 RB=280 RE=1 RC=40 TR=.3U CJE=12P VJE=.48 MJE=0.5 CJC=6P VJC=.7 MJC=.33 TF=.5N)
*------------------------------------------------------------------------------------
.model BF245A    NJF(Beta=1.754m Betatce=-.5 Rd=1 Rs=1 Lambda=2.667m Vto=-1.409
        +                Vtotc=-2.5m Is=33.57f Isr=322.4f N=1 Nr=2 Xti=3 Alpha=311.7
        +                Vk=243.6 Cgd=3.35p M=.3622 Pb=1 FC=.5 Cgs=3.736p KF=13.56E-18
        +                Af=1)
*------------------------------------------------------------------------------------
.MODEL BD139 NPN (IS=2.3985E-13 BF=244.9 NF=1.0 BR=78.11 NR=1.007 ISE=1.0471E-14
        +  NE=1.2 ISC=1.9314E-11 NC=1.45 VAF=98.5 VAR=7.46 IKF=1.1863 IKR=0.1445 RB=2.14 RBM=0.001
        +  IRB=0.031 RE=0.0832 RC=0.01 CJE=2.92702E-10 VJE=0.67412 MJE=0.3300 FC=0.5 CJC=4.8831E-11
        +  VJC=0.5258 MJC=0.3928 XCJC=0.5287 XTB=1.1398 EG=1.2105 XTI=3.0)
*-------------------------------------------------------
.MODEL BD140 PNP (IS=2.9537E-13 BF=201.4 NF=1.0 BR=23.765 NR=1.021 ISE=1.8002E-13 NE=1.5
        +  ISC=7.0433E-12 NC=1.38 VAF=137.0 VAR=8.41 IKF=1.0993 IKR=0.10 RB=1.98 RBM=0.01 IRB=0.011
        +  RE=0.1109 RC=0.01 CJE=2.1982E-10 VJE=0.7211 MJE=0.3685 FC=0.5 CJC=6.8291E-11 VJC=0.5499
        +  MJC=0.3668 XCJC=0.5287 XTB=1.4883 EG=1.2343 XTI=3.0)
*-----------------------------------------------------------------------
.MODEL BC559C PNP (IS=10.2F NF=1 BF=650 VAF=98.6 IKF=60M ISE=2.02P NE=2
	+ BR=4 NR=1 VAR=20 IKR=90M RE=0.515 RB=2.06 RC=0.206 XTB=1.5 XTF=50 Xti=3
	+ CJE=7.46P VJE=1.1 MJE=0.5 CJC=5.21P VJC=0.3 MJC=0.3 TF=636P TR=442N)
*----------------------------------------------------------------------- 
.model BC549C   NPN(Bf=490 Br=2.9 Cjc=5.5p Cje=12p Eg=1.1 Fc=.5 IkF=.1500 Ikr=6
	+               Is=8f Isc=7p Ise=100f Itf=1.4 Mjc=.31 Mje=.7 Nc=1.5 Ne=1.8 
	+               Nk=.63 Rc=1.12 Tf=420p Tr=10n Vaf=24 Vjc=.5 Vje=.5 Vtf=12
	+               Xtb=1.5  Xtf=50 Xti=3)
